Version 4
SHEET 1 1340 680
WIRE 368 48 352 48
WIRE 368 80 352 80
WIRE 240 112 144 112
WIRE 368 112 352 112
WIRE 144 144 144 112
WIRE 368 144 352 144
WIRE 368 208 352 208
WIRE 240 224 144 224
WIRE 144 240 144 224
WIRE 368 240 352 240
WIRE 368 272 352 272
WIRE 368 304 352 304
WIRE 368 368 352 368
FLAG 144 240 0
FLAG 240 112 1
IOPIN 240 112 Out
FLAG 240 224 0
IOPIN 240 224 Out
FLAG 352 48 1
IOPIN 352 48 In
FLAG 352 80 0
IOPIN 352 80 In
FLAG 352 112 0
IOPIN 352 112 In
FLAG 352 144 0
IOPIN 352 144 In
FLAG 352 208 1
IOPIN 352 208 In
FLAG 352 240 0
IOPIN 352 240 In
FLAG 352 272 0
IOPIN 352 272 In
FLAG 352 304 0
IOPIN 352 304 In
FLAG 352 368 0
IOPIN 352 368 In
FLAG 592 144 S0
IOPIN 592 144 Out
FLAG 592 176 S1
IOPIN 592 176 Out
FLAG 592 208 S2
IOPIN 592 208 Out
FLAG 592 240 S3
IOPIN 592 240 Out
FLAG 592 368 Cout
IOPIN 592 368 Out
SYMBOL voltage 144 128 R0
WINDOW 123 0 0 Left 2
WINDOW 39 0 0 Left 2
WINDOW 3 49 53 Left 2
SYMATTR InstName V2
SYMATTR Value 5
SYMBOL 74hct283 480 -16 R0
SYMATTR InstName U2
TEXT 400 -32 Left 2 !.lib 74HCT.lib
TEXT 176 264 Left 2 !.op
