Version 4
SHEET 1 1340 680
WIRE 64 -160 16 -160
WIRE 64 -96 16 -96
WIRE 352 -96 336 -96
WIRE 656 -96 640 -96
WIRE 496 -80 464 -80
WIRE 64 -64 16 -64
WIRE 352 -64 336 -64
WIRE 656 -64 640 -64
WIRE 64 -32 16 -32
WIRE 656 -32 640 -32
WIRE -96 -16 -192 -16
WIRE 352 -16 336 -16
WIRE 64 0 16 0
WIRE 496 0 464 0
WIRE 656 0 640 0
WIRE -192 16 -192 -16
WIRE 352 16 336 16
WIRE 352 64 336 64
WIRE 656 64 640 64
WIRE 496 80 464 80
WIRE -96 96 -192 96
WIRE 352 96 336 96
WIRE 656 96 640 96
WIRE -192 112 -192 96
WIRE 64 128 16 128
WIRE 656 128 640 128
WIRE 352 144 336 144
WIRE 64 160 16 160
WIRE 496 160 464 160
WIRE 656 160 640 160
WIRE 352 176 336 176
WIRE 64 192 16 192
WIRE 64 224 16 224
WIRE 656 224 640 224
FLAG -192 112 0
FLAG -96 -16 1
IOPIN -96 -16 Out
FLAG -96 96 0
IOPIN -96 96 Out
FLAG 640 -96 .
IOPIN 640 -96 In
FLAG 640 -64 .
IOPIN 640 -64 In
FLAG 640 -32 .
IOPIN 640 -32 In
FLAG 640 0 .
IOPIN 640 0 In
FLAG 640 64 .
IOPIN 640 64 In
FLAG 640 96 .
IOPIN 640 96 In
FLAG 640 128 .
IOPIN 640 128 In
FLAG 640 160 .
IOPIN 640 160 In
FLAG 640 224 .
IOPIN 640 224 In
FLAG 880 0 S_1
IOPIN 880 0 Out
FLAG 880 32 S_2
IOPIN 880 32 Out
FLAG 880 64 S_3
IOPIN 880 64 Out
FLAG 880 96 S_4
IOPIN 880 96 Out
FLAG 880 224 Cout
IOPIN 880 224 Out
FLAG 16 -96 1
IOPIN 16 -96 In
FLAG 64 -96 A_1
IOPIN 64 -96 Out
FLAG 16 -64 1
IOPIN 16 -64 In
FLAG 64 -64 A_2
IOPIN 64 -64 Out
FLAG 16 -32 0
IOPIN 16 -32 In
FLAG 64 -32 A_3
IOPIN 64 -32 Out
FLAG 16 0 0
IOPIN 16 0 In
FLAG 64 0 A_4
IOPIN 64 0 Out
FLAG 16 128 0
IOPIN 16 128 In
FLAG 64 128 B_1
IOPIN 64 128 Out
FLAG 16 160 0
IOPIN 16 160 In
FLAG 64 160 B_2
IOPIN 64 160 Out
FLAG 16 192 0
IOPIN 16 192 In
FLAG 64 192 B_3
IOPIN 64 192 Out
FLAG 16 224 0
IOPIN 16 224 In
FLAG 64 224 B_4
IOPIN 64 224 Out
FLAG 496 -80 x1
IOPIN 496 -80 Out
FLAG 496 0 x2
IOPIN 496 0 Out
FLAG 496 80 x3
IOPIN 496 80 Out
FLAG 496 160 x4
IOPIN 496 160 Out
FLAG 16 -160 1
IOPIN 16 -160 In
FLAG 64 -160 ADDn_SUB
IOPIN 64 -160 Out
FLAG 336 -96 .
IOPIN 336 -96 In
FLAG 336 -16 .
IOPIN 336 -16 In
FLAG 336 -64 .
IOPIN 336 -64 In
FLAG 336 16 .
IOPIN 336 16 In
FLAG 336 64 .
IOPIN 336 64 In
FLAG 336 96 .
IOPIN 336 96 In
FLAG 336 144 .
IOPIN 336 144 In
FLAG 336 176 .
IOPIN 336 176 In
SYMBOL voltage -192 0 R0
WINDOW 123 0 0 Left 2
WINDOW 39 0 0 Left 2
WINDOW 3 49 53 Left 2
SYMATTR Value 5V
SYMATTR InstName V2
SYMBOL 74hct283 768 -160 R0
SYMATTR InstName U2
SYMBOL 74hct86 400 -144 R0
WINDOW 0 -16 16 Invisible 2
WINDOW 3 -32 112 Invisible 2
SYMATTR InstName U1
SYMBOL 74hct86 400 -64 R0
WINDOW 0 -16 16 Invisible 2
WINDOW 3 -32 112 Invisible 2
SYMATTR InstName U3
SYMBOL 74hct86 400 16 R0
WINDOW 0 -16 16 Invisible 2
WINDOW 3 -32 112 Invisible 2
SYMATTR InstName U4
SYMBOL 74hct86 400 96 R0
WINDOW 0 -16 16 Invisible 2
WINDOW 3 -32 112 Invisible 2
SYMATTR InstName U5
TEXT 688 -176 Left 2 !.lib 74HCT.lib
TEXT -160 136 Left 2 !.op
