Version 4
SHEET 1 1340 680
WIRE -400 -16 -432 -16
WIRE -432 16 -432 -16
WIRE -288 16 -304 16
WIRE -432 32 -432 16
WIRE -288 48 -304 48
WIRE 496 64 96 64
WIRE -288 80 -304 80
WIRE -400 96 -432 96
WIRE -432 112 -432 96
WIRE -288 112 -304 112
WIRE 496 112 496 64
WIRE 112 128 64 128
WIRE 144 128 144 112
WIRE 144 128 112 128
WIRE 336 128 256 128
WIRE 880 128 864 128
WIRE 992 128 960 128
WIRE 1024 128 992 128
WIRE -288 144 -352 144
WIRE -256 144 -288 144
WIRE 144 144 144 128
WIRE 496 144 448 144
WIRE 880 160 864 160
WIRE 992 160 960 160
WIRE 1024 160 992 160
WIRE -352 176 -352 144
WIRE 608 192 608 128
WIRE 640 192 608 192
WIRE 880 192 864 192
WIRE 992 192 960 192
WIRE 1024 192 992 192
WIRE 112 208 112 128
WIRE 496 208 112 208
WIRE 768 208 752 208
WIRE 336 224 336 160
WIRE 336 224 64 224
WIRE 640 224 608 224
WIRE 880 224 864 224
WIRE 992 224 960 224
WIRE 1024 224 992 224
WIRE -32 240 -64 240
WIRE 496 240 496 208
WIRE 336 256 336 224
WIRE 608 256 608 224
WIRE -32 272 -64 272
WIRE 496 272 448 272
WIRE 96 288 96 64
WIRE 96 288 64 288
WIRE 144 288 144 272
WIRE 144 288 96 288
WIRE 336 288 256 288
WIRE -352 304 -352 256
WIRE -32 304 -64 304
WIRE 144 304 144 288
FLAG -352 304 0
FLAG -432 112 0
FLAG -400 176 CLOCK
FLAG -400 -16 1
IOPIN -400 -16 Out
FLAG -400 96 0
IOPIN -400 96 Out
FLAG -304 16 1
IOPIN -304 16 In
FLAG -304 48 1
IOPIN -304 48 In
FLAG -304 80 1
IOPIN -304 80 In
FLAG -304 112 1
IOPIN -304 112 In
FLAG 992 128 Xin
FLAG 992 160 Yin
FLAG 992 192 Zin
FLAG 992 224 Fout
FLAG -32 240 z
IOPIN -32 240 Out
FLAG -32 272 y
IOPIN -32 272 Out
FLAG -32 304 x
IOPIN -32 304 Out
FLAG 864 160 y
IOPIN 864 160 In
FLAG 864 128 x
IOPIN 864 128 In
FLAG 864 192 z
IOPIN 864 192 In
FLAG 64 128 x
IOPIN 64 128 In
FLAG 64 224 y
IOPIN 64 224 In
FLAG 64 288 z
IOPIN 64 288 In
FLAG 864 224 f
IOPIN 864 224 In
FLAG 768 208 f
IOPIN 768 208 Out
SYMBOL voltage -432 0 R0
WINDOW 123 0 0 Left 2
WINDOW 39 0 0 Left 2
WINDOW 3 43 53 Left 2
SYMATTR Value 5
SYMATTR InstName V2
SYMBOL 74hct161 -176 -64 R0
SYMATTR InstName U1
SYMBOL voltage -352 160 R0
WINDOW 123 0 0 Left 2
WINDOW 39 0 0 Left 2
WINDOW 3 -61 -251 Left 2
SYMATTR Value PULSE(0 5 1m 1n 1n 0.5m 1m 18)
SYMATTR InstName V1
SYMBOL dview5 896 272 R0
WINDOW 0 -19 -191 Left 2
SYMATTR InstName Display
SYMBOL 74hct00 192 64 R0
SYMATTR InstName U2
SYMBOL 74hct00 192 224 R0
SYMATTR InstName U3
SYMBOL 74hct08 384 208 R0
WINDOW 0 17 36 Left 2
SYMATTR InstName U4
SYMBOL 74hct32 384 80 R0
SYMATTR InstName U5
SYMBOL 74hct08 544 64 R0
WINDOW 3 -51 112 Left 2
SYMATTR InstName U6
SYMBOL 74hct08 544 192 R0
WINDOW 0 -18 11 Left 2
SYMATTR InstName U7
SYMBOL 74hct32 688 144 R0
WINDOW 3 -49 118 Left 2
SYMATTR InstName U8
TEXT -408 -64 Left 2 !.tran 0 8m 0
TEXT -16 -88 Left 2 !.lib 74HCT.lib
TEXT -16 -56 Left 2 !.lib dview.lib
