Version 4
SHEET 1 1476 800
WIRE 1264 -32 -32 -32
WIRE -400 -16 -432 -16
WIRE 1216 0 0 0
WIRE -432 16 -432 -16
WIRE -288 16 -304 16
WIRE -432 32 -432 16
WIRE 1104 32 32 32
WIRE -288 48 -304 48
WIRE -288 80 -304 80
WIRE -400 96 -432 96
WIRE 32 96 32 32
WIRE 560 96 32 96
WIRE 576 96 560 96
WIRE 832 96 736 96
WIRE -432 112 -432 96
WIRE -288 112 -304 112
WIRE 736 112 736 96
WIRE 736 112 688 112
WIRE 1040 112 944 112
WIRE 576 128 512 128
WIRE -288 144 -352 144
WIRE -256 144 -288 144
WIRE 720 144 704 144
WIRE 0 160 0 0
WIRE 112 160 0 160
WIRE 128 160 112 160
WIRE 832 160 832 128
WIRE -352 176 -352 144
WIRE 384 176 240 176
WIRE 704 176 704 144
WIRE 720 176 704 176
WIRE -32 192 -32 -32
WIRE 80 192 -32 192
WIRE 128 192 80 192
WIRE 512 192 512 128
WIRE 512 192 496 192
WIRE 1264 192 1264 -32
WIRE 1296 192 1264 192
WIRE 1408 192 1376 192
WIRE 1440 192 1408 192
WIRE 560 224 560 96
WIRE 592 224 560 224
WIRE 1216 224 1216 0
WIRE 1296 224 1216 224
WIRE 1408 224 1376 224
WIRE 1440 224 1408 224
WIRE -32 240 -32 192
WIRE -32 240 -64 240
WIRE 704 240 704 176
WIRE 864 240 704 240
WIRE 256 256 240 256
WIRE 512 256 512 192
WIRE 592 256 512 256
WIRE 1104 256 1104 32
WIRE 1296 256 1104 256
WIRE 1408 256 1376 256
WIRE 1440 256 1408 256
WIRE 0 272 0 160
WIRE 0 272 -64 272
WIRE 112 272 112 160
WIRE 128 272 112 272
WIRE 384 272 384 208
WIRE 384 272 368 272
WIRE 240 288 240 256
WIRE 256 288 240 288
WIRE 1040 288 1040 112
WIRE 1296 288 1040 288
WIRE 1408 288 1376 288
WIRE 1440 288 1408 288
WIRE -352 304 -352 256
WIRE 32 304 32 96
WIRE 32 304 -64 304
WIRE 80 304 80 192
WIRE 128 304 80 304
WIRE 864 304 864 240
WIRE 992 320 976 320
WIRE 1296 320 992 320
WIRE 1408 320 1376 320
WIRE 1440 320 1408 320
WIRE 240 336 224 336
WIRE 256 336 256 288
WIRE 864 336 256 336
WIRE 1296 352 1216 352
WIRE 1408 352 1376 352
WIRE 1440 352 1408 352
WIRE 1296 384 1264 384
WIRE 1408 384 1376 384
WIRE 1440 384 1408 384
WIRE 32 496 32 304
WIRE 304 496 32 496
WIRE 368 496 304 496
WIRE 1040 496 1040 288
WIRE 1216 512 1216 352
WIRE 1216 512 1152 512
WIRE 0 528 0 272
WIRE 368 528 0 528
WIRE 1040 528 672 528
WIRE 672 624 672 528
WIRE 672 624 592 624
WIRE 992 640 992 320
WIRE 1040 640 992 640
WIRE 304 656 304 496
WIRE 368 656 304 656
WIRE 1264 656 1264 384
WIRE 1264 656 1152 656
WIRE 1040 672 672 672
WIRE -32 688 -32 240
WIRE 368 688 -32 688
WIRE 672 752 672 672
WIRE 672 752 592 752
FLAG -352 304 0
FLAG -432 112 0
FLAG -400 176 CLOCK
FLAG -400 -16 1
IOPIN -400 -16 Out
FLAG -400 96 0
IOPIN -400 96 Out
FLAG -304 16 1
IOPIN -304 16 In
FLAG -304 48 1
IOPIN -304 48 In
FLAG -304 80 1
IOPIN -304 80 In
FLAG -304 112 1
IOPIN -304 112 In
FLAG 1408 192 B
FLAG 1408 224 A
FLAG 1408 256 Cin
FLAG 1408 288 S
FLAG 1408 320 Cout
FLAG 1408 352 Error_S
FLAG 1408 384 Error_C
SYMBOL voltage -432 0 R0
WINDOW 123 0 0 Left 2
WINDOW 39 0 0 Left 2
WINDOW 3 43 53 Left 2
SYMATTR Value 5
SYMATTR InstName V2
SYMBOL 74HCT\\74hct161 -176 -64 R0
SYMATTR InstName U1
SYMBOL voltage -352 160 R0
WINDOW 123 0 0 Left 2
WINDOW 39 0 0 Left 2
WINDOW 3 -61 -251 Left 2
SYMATTR Value PULSE(0 5 1m 1n 1n 0.5m 1m 18)
SYMATTR InstName V1
SYMBOL 74hct32 176 112 R0
WINDOW 3 20 86 Left 2
SYMATTR InstName U2
SYMBOL 74hct08 176 224 R0
SYMATTR InstName U3
SYMBOL 74hct00 304 208 R0
SYMATTR InstName U4
SYMBOL 74hct08 432 128 R0
WINDOW 3 -40 111 Left 2
SYMATTR InstName U5
SYMBOL 74hct32 624 48 R0
SYMATTR InstName U6
SYMBOL 74hct08 640 176 R0
SYMATTR InstName U7
SYMBOL 74hct00 768 96 R0
SYMATTR InstName U8
SYMBOL 74hct08 880 48 R0
SYMATTR InstName U9
SYMBOL 74hct32 912 256 R0
SYMATTR InstName U10
SYMBOL 74hct283 480 368 R0
SYMATTR InstName U11
SYMBOL 74hct86 1088 448 R0
SYMATTR InstName U12
SYMBOL 74hct86 1088 592 R0
SYMATTR InstName U13
SYMBOL dview10 1312 336 R0
SYMATTR InstName U14
TEXT -408 -64 Left 2 !.tran 0 8m 0
TEXT -16 -88 Left 2 !.lib 74HCT.lib
TEXT -16 -56 Left 2 !.lib dview.lib
