Version 4
SHEET 1 1340 680
WIRE 368 48 352 48
WIRE 368 80 352 80
WIRE 64 112 -32 112
WIRE 368 112 352 112
WIRE 784 112 736 112
WIRE 240 128 192 128
WIRE -32 144 -32 112
WIRE 368 144 352 144
WIRE 784 144 736 144
WIRE 240 160 192 160
WIRE 784 176 736 176
WIRE 240 192 192 192
WIRE 368 208 352 208
WIRE 784 208 736 208
WIRE 64 224 -32 224
WIRE 240 224 192 224
WIRE -32 240 -32 224
WIRE 368 240 352 240
WIRE 784 240 736 240
WIRE 368 272 352 272
WIRE 784 272 736 272
WIRE 368 304 352 304
WIRE 368 368 352 368
FLAG -32 240 0
FLAG 64 112 1
IOPIN 64 112 Out
FLAG 64 224 0
IOPIN 64 224 Out
FLAG 352 48 0
IOPIN 352 48 In
FLAG 352 80 0
IOPIN 352 80 In
FLAG 352 112 0
IOPIN 352 112 In
FLAG 352 144 0
IOPIN 352 144 In
FLAG 352 208 0
IOPIN 352 208 In
FLAG 352 240 0
IOPIN 352 240 In
FLAG 352 272 0
IOPIN 352 272 In
FLAG 352 304 0
IOPIN 352 304 In
FLAG 352 368 0
IOPIN 352 368 In
FLAG 592 144 S_1
IOPIN 592 144 Out
FLAG 592 176 S_2
IOPIN 592 176 Out
FLAG 592 208 S_3
IOPIN 592 208 Out
FLAG 592 240 S_4
IOPIN 592 240 Out
FLAG 592 368 Cout
IOPIN 592 368 Out
FLAG 192 128 1
IOPIN 192 128 In
FLAG 240 128 x0
IOPIN 240 128 Out
FLAG 192 160 1
IOPIN 192 160 In
FLAG 240 160 x1
IOPIN 240 160 Out
FLAG 192 192 1
IOPIN 192 192 In
FLAG 240 192 x2
IOPIN 240 192 Out
FLAG 192 224 1
IOPIN 192 224 In
FLAG 240 224 x3
IOPIN 240 224 Out
FLAG 736 112 0
IOPIN 736 112 In
FLAG 784 112 y0
IOPIN 784 112 Out
FLAG 736 144 0
IOPIN 736 144 In
FLAG 784 144 y1
IOPIN 784 144 Out
FLAG 736 176 0
IOPIN 736 176 In
FLAG 784 176 y2
IOPIN 784 176 Out
FLAG 736 208 0
IOPIN 736 208 In
FLAG 784 208 y3
IOPIN 784 208 Out
FLAG 736 240 0
IOPIN 736 240 In
FLAG 784 240 y4
IOPIN 784 240 Out
FLAG 736 272 0
IOPIN 736 272 In
FLAG 784 272 y5
IOPIN 784 272 Out
SYMBOL voltage -32 128 R0
WINDOW 123 0 0 Left 2
WINDOW 39 0 0 Left 2
WINDOW 3 49 53 Left 2
SYMATTR Value 5
SYMATTR InstName V2
SYMBOL 74hct283 480 -16 R0
SYMATTR InstName U2
TEXT 400 -32 Left 2 !.lib 74HCT.lib
TEXT 0 264 Left 2 !.op
TEXT 624 32 Left 4 ;y=2*(1*x+0,5*x)=3*x
