Version 4
SHEET 1 1340 680
WIRE 16 -16 -16 -16
WIRE -16 16 -16 -16
WIRE 128 16 112 16
WIRE -16 32 -16 16
WIRE 128 48 112 48
WIRE 128 80 112 80
WIRE 16 96 -16 96
WIRE -16 112 -16 96
WIRE 128 112 112 112
WIRE 128 144 64 144
WIRE 160 144 128 144
WIRE 64 176 64 144
WIRE 64 304 64 256
FLAG 64 304 0
FLAG -16 112 0
FLAG 16 176 CLOCK
FLAG 16 -16 1
IOPIN 16 -16 Out
FLAG 16 96 0
IOPIN 16 96 Out
FLAG 112 16 1
IOPIN 112 16 In
FLAG 112 48 1
IOPIN 112 48 In
FLAG 112 80 1
IOPIN 112 80 In
FLAG 112 112 1
IOPIN 112 112 In
SYMBOL voltage -16 0 R0
WINDOW 123 0 0 Left 2
WINDOW 39 0 0 Left 2
WINDOW 3 43 53 Left 2
SYMATTR Value 5
SYMATTR InstName V2
SYMBOL 74HCT\\74hct161 240 -64 R0
SYMATTR InstName U1
SYMBOL voltage 64 160 R0
WINDOW 123 0 0 Left 2
WINDOW 39 0 0 Left 2
WINDOW 3 -61 -251 Left 2
SYMATTR Value PULSE(0 5 1m 1n 1n 0.5m 1m 18)
SYMATTR InstName V1
SYMBOL dview5 592 336 R0
SYMATTR InstName Display
TEXT 8 -64 Left 2 !.tran 0 4m 0
TEXT 496 -80 Left 2 !.lib 74HCT.lib
TEXT 496 -48 Left 2 !.lib dview.lib
