Version 4
SHEET 1 1340 680
WIRE 800 -32 -32 -32
WIRE -400 -16 -432 -16
WIRE 768 0 0 0
WIRE -432 16 -432 -16
WIRE -288 16 -304 16
WIRE -432 32 -432 16
WIRE 736 32 32 32
WIRE -288 48 -304 48
WIRE -288 80 -304 80
WIRE -400 96 -432 96
WIRE -432 112 -432 96
WIRE -288 112 -304 112
WIRE -288 144 -352 144
WIRE -256 144 -288 144
WIRE -352 176 -352 144
WIRE 800 192 800 -32
WIRE 832 192 800 192
WIRE 944 192 912 192
WIRE 976 192 944 192
WIRE 768 224 768 0
WIRE 832 224 768 224
WIRE 944 224 912 224
WIRE 976 224 944 224
WIRE -32 240 -32 -32
WIRE -32 240 -64 240
WIRE 736 256 736 32
WIRE 832 256 736 256
WIRE 944 256 912 256
WIRE 976 256 944 256
WIRE 0 272 0 0
WIRE 0 272 -64 272
WIRE 944 288 912 288
WIRE 976 288 944 288
WIRE -352 304 -352 256
WIRE 32 304 32 32
WIRE 32 304 -64 304
FLAG -352 304 0
FLAG -432 112 0
FLAG -400 176 CLOCK
FLAG -400 -16 1
IOPIN -400 -16 Out
FLAG -400 96 0
IOPIN -400 96 Out
FLAG -304 16 1
IOPIN -304 16 In
FLAG -304 48 1
IOPIN -304 48 In
FLAG -304 80 1
IOPIN -304 80 In
FLAG -304 112 1
IOPIN -304 112 In
FLAG 944 192 Z
FLAG 944 224 Y
FLAG 944 256 X
FLAG 944 288 f
SYMBOL voltage -432 0 R0
WINDOW 123 0 0 Left 2
WINDOW 39 0 0 Left 2
WINDOW 3 43 53 Left 2
SYMATTR Value 5
SYMATTR InstName V2
SYMBOL 74HCT\\74hct161 -176 -64 R0
SYMATTR InstName U1
SYMBOL voltage -352 160 R0
WINDOW 123 0 0 Left 2
WINDOW 39 0 0 Left 2
WINDOW 3 -61 -251 Left 2
SYMATTR Value PULSE(0 5 1m 1n 1n 0.5m 1m 18)
SYMATTR InstName V1
SYMBOL dview5 848 336 R0
SYMATTR InstName Display
TEXT -408 -64 Left 2 !.tran 0 8m 0
TEXT -16 -88 Left 2 !.lib 74HCT.lib
TEXT -16 -56 Left 2 !.lib dview.lib
