Version 4
SHEET 1 1340 680
WIRE -304 -32 -336 -32
WIRE 160 -32 -224 -32
WIRE -336 0 -336 -32
WIRE 112 0 -192 0
WIRE -336 16 -336 0
WIRE -48 32 -96 32
WIRE -304 80 -336 80
WIRE 160 80 160 -32
WIRE 208 80 160 80
WIRE 336 80 288 80
WIRE 384 80 336 80
WIRE -336 96 -336 80
WIRE -192 112 -192 0
WIRE -144 112 -192 112
WIRE -128 112 -144 112
WIRE 208 112 48 112
WIRE 336 112 288 112
WIRE 384 112 336 112
WIRE -288 144 -352 144
WIRE -224 144 -224 -32
WIRE -224 144 -288 144
WIRE -144 144 -224 144
WIRE -352 176 -352 144
WIRE 112 176 112 0
WIRE 112 176 48 176
WIRE -48 256 -96 256
WIRE -352 304 -352 256
FLAG -352 304 0
FLAG -336 96 0
FLAG -288 144 CLOCK
FLAG -304 -32 1
IOPIN -304 -32 Out
FLAG -304 80 0
IOPIN -304 80 Out
FLAG -96 32 1
IOPIN -96 32 In
FLAG -96 256 1
IOPIN -96 256 In
FLAG 336 80 CK
FLAG 336 112 Qout
SYMBOL voltage -336 -16 R0
WINDOW 123 0 0 Left 2
WINDOW 39 0 0 Left 2
WINDOW 3 43 53 Left 2
SYMATTR Value 5
SYMATTR InstName V2
SYMBOL voltage -352 160 R0
WINDOW 123 0 0 Left 2
WINDOW 39 0 0 Left 2
WINDOW 3 16 125 Left 2
SYMATTR Value PULSE(0 5 1m 1n 1n 0.5m 1m 18)
SYMATTR InstName V1
SYMBOL dview5 224 224 R0
SYMATTR InstName Display
SYMBOL 74hct74 -48 32 R0
SYMATTR InstName U11
TEXT -208 -56 Left 2 !.tran 0 8m 0
TEXT -56 -56 Left 2 !.lib 74HCT.lib
TEXT 88 -56 Left 2 !.lib dview.lib
