Version 4
SHEET 1 1340 680
WIRE -80 16 -128 16
WIRE 400 16 352 16
WIRE -464 48 -496 48
WIRE -416 48 -464 48
WIRE 656 48 640 48
WIRE 784 48 736 48
WIRE 832 48 784 48
WIRE -288 80 -304 80
WIRE 192 80 176 80
WIRE 656 80 640 80
WIRE 784 80 736 80
WIRE 832 80 784 80
WIRE -160 96 -176 96
WIRE 32 96 16 96
WIRE 320 96 304 96
WIRE 512 96 496 96
WIRE -288 112 -304 112
WIRE 192 112 176 112
WIRE 656 112 640 112
WIRE 784 112 736 112
WIRE 832 112 784 112
WIRE -496 160 -528 160
WIRE -336 160 -400 160
WIRE -176 160 -176 128
WIRE -176 160 -208 160
WIRE 32 160 16 160
WIRE 304 160 304 128
WIRE 304 160 272 160
WIRE 512 160 496 160
WIRE -400 176 -400 160
WIRE -528 192 -528 160
WIRE -528 208 -528 192
WIRE -80 240 -128 240
WIRE 400 240 352 240
WIRE -496 272 -528 272
WIRE -528 288 -528 272
WIRE -400 304 -400 256
FLAG -400 304 0
FLAG -528 288 0
FLAG -496 160 1
IOPIN -496 160 Out
FLAG -496 272 0
IOPIN -496 272 Out
FLAG -128 16 1
IOPIN -128 16 In
FLAG -128 240 1
IOPIN -128 240 In
FLAG 784 48 CKout
FLAG 784 80 Q1out
FLAG 352 16 1
IOPIN 352 16 In
FLAG 352 240 1
IOPIN 352 240 In
FLAG 176 112 1
IOPIN 176 112 In
FLAG 176 80 1
IOPIN 176 80 In
FLAG -304 112 1
IOPIN -304 112 In
FLAG -304 80 1
IOPIN -304 80 In
FLAG 272 160 ck
IOPIN 272 160 In
FLAG -336 160 ck
IOPIN -336 160 Out
FLAG -208 160 ck
IOPIN -208 160 In
FLAG 640 48 ck
IOPIN 640 48 In
FLAG 32 96 Q1
IOPIN 32 96 Out
FLAG 640 80 Q1
IOPIN 640 80 In
FLAG 640 112 Q2
IOPIN 640 112 In
FLAG -496 48 1
IOPIN -496 48 In
FLAG -416 48 x
IOPIN -416 48 Out
FLAG -464 48 DIR
FLAG 32 160 Q1n
IOPIN 32 160 Out
FLAG 784 112 Q2out
FLAG 512 96 Q2
IOPIN 512 96 Out
FLAG 512 160 Q2n
IOPIN 512 160 Out
SYMBOL voltage -528 176 R0
WINDOW 123 0 0 Left 2
WINDOW 39 0 0 Left 2
WINDOW 3 43 53 Left 2
SYMATTR Value 5
SYMATTR InstName V2
SYMBOL voltage -400 160 R0
WINDOW 123 0 0 Left 2
WINDOW 39 0 0 Left 2
WINDOW 3 21 122 Left 2
SYMATTR Value PULSE(0 5 0.5m 1n 1n 0.5m 1m 18)
SYMATTR InstName V1
SYMBOL dview5 672 192 R0
SYMATTR InstName Display
SYMBOL 74hct74 -80 16 R0
SYMATTR InstName U1
SYMBOL 74hct74 400 16 R0
SYMATTR InstName U2
SYMBOL 74hct86 240 32 R0
WINDOW 3 -67 -15 Left 2
SYMATTR InstName U4
SYMBOL 74hct86 -240 32 R0
WINDOW 3 -58 -13 Left 2
SYMATTR InstName U3
TEXT -528 -32 Left 2 !.tran 0 8m 0
TEXT -376 -32 Left 2 !.lib 74HCT.lib
TEXT -232 -32 Left 2 !.lib dview.lib
