Version 4
SHEET 1 1424 680
WIRE -80 16 -128 16
WIRE 272 16 224 16
WIRE 624 16 576 16
WIRE 976 16 928 16
WIRE -336 32 -352 32
WIRE -192 48 -224 48
WIRE -336 64 -352 64
WIRE 176 64 16 64
WIRE 528 64 368 64
WIRE 880 64 720 64
WIRE -192 96 -192 48
WIRE -176 96 -192 96
WIRE -160 96 -176 96
WIRE 16 96 16 64
WIRE 32 96 16 96
WIRE 176 96 176 64
WIRE 192 96 176 96
WIRE 368 96 368 64
WIRE 384 96 368 96
WIRE 528 96 528 64
WIRE 544 96 528 96
WIRE 720 96 720 64
WIRE 736 96 720 96
WIRE 880 96 880 64
WIRE 896 96 880 96
WIRE 1088 96 1072 96
WIRE 1232 96 1216 96
WIRE 1360 96 1312 96
WIRE 1408 96 1360 96
WIRE -176 128 -192 128
WIRE 176 128 160 128
WIRE 528 128 512 128
WIRE 880 128 864 128
WIRE 1232 128 1216 128
WIRE 1360 128 1312 128
WIRE 1408 128 1360 128
WIRE -496 160 -528 160
WIRE -336 160 -400 160
WIRE 32 160 16 160
WIRE 384 160 368 160
WIRE 736 160 720 160
WIRE 1088 160 1072 160
WIRE 1232 160 1216 160
WIRE 1360 160 1312 160
WIRE 1408 160 1360 160
WIRE -400 176 -400 160
WIRE -528 192 -528 160
WIRE 1232 192 1216 192
WIRE 1360 192 1312 192
WIRE 1408 192 1360 192
WIRE -528 208 -528 192
WIRE 1232 224 1216 224
WIRE 1360 224 1312 224
WIRE 1408 224 1360 224
WIRE -80 240 -128 240
WIRE 272 240 224 240
WIRE 624 240 576 240
WIRE 976 240 928 240
WIRE -496 272 -528 272
WIRE -528 288 -528 272
WIRE -400 304 -400 256
FLAG -400 304 0
FLAG -528 288 0
FLAG -496 160 1
IOPIN -496 160 Out
FLAG -496 272 0
IOPIN -496 272 Out
FLAG -128 16 1
IOPIN -128 16 In
FLAG -128 240 1
IOPIN -128 240 In
FLAG 1360 96 CKout
FLAG 1360 128 Q3out
FLAG 224 16 1
IOPIN 224 16 In
FLAG 224 240 1
IOPIN 224 240 In
FLAG 160 128 ck
IOPIN 160 128 In
FLAG -336 160 ck
IOPIN -336 160 Out
FLAG -192 128 ck
IOPIN -192 128 In
FLAG 1216 96 ck
IOPIN 1216 96 In
FLAG 32 96 Q0
IOPIN 32 96 Out
FLAG 1216 128 Q3
IOPIN 1216 128 In
FLAG 1216 160 Q2
IOPIN 1216 160 In
FLAG 32 160 Q0n
IOPIN 32 160 Out
FLAG 1360 160 Q2out
FLAG 384 96 Q1
IOPIN 384 96 Out
FLAG 384 160 Q1n
IOPIN 384 160 Out
FLAG 576 16 1
IOPIN 576 16 In
FLAG 576 240 1
IOPIN 576 240 In
FLAG 512 128 ck
IOPIN 512 128 In
FLAG 736 96 Q2
IOPIN 736 96 Out
FLAG 736 160 Q2n
IOPIN 736 160 Out
FLAG 928 16 1
IOPIN 928 16 In
FLAG 928 240 1
IOPIN 928 240 In
FLAG 864 128 ck
IOPIN 864 128 In
FLAG 1088 96 Q3
IOPIN 1088 96 Out
FLAG 1088 160 Q3n
IOPIN 1088 160 Out
FLAG 1216 192 Q1
IOPIN 1216 192 In
FLAG 1216 224 Q0
IOPIN 1216 224 In
FLAG 1360 192 Q1out
FLAG 1360 224 Q0out
FLAG -352 32 Q0
IOPIN -352 32 In
FLAG -352 64 Q3n
IOPIN -352 64 In
SYMBOL voltage -528 176 R0
WINDOW 123 0 0 Left 2
WINDOW 39 0 0 Left 2
WINDOW 3 43 53 Left 2
SYMATTR Value 5
SYMATTR InstName V2
SYMBOL voltage -400 160 R0
WINDOW 123 0 0 Left 2
WINDOW 39 0 0 Left 2
WINDOW 3 21 122 Left 2
SYMATTR Value PULSE(0 5 0.5m 1n 1n 0.5m 1m 18)
SYMATTR InstName V1
SYMBOL 74hct74 -80 16 R0
SYMATTR InstName U1
SYMBOL 74hct74 272 16 R0
SYMATTR InstName U2
SYMBOL 74hct74 624 16 R0
SYMATTR InstName U3
SYMBOL 74hct74 976 16 R0
SYMATTR InstName U4
SYMBOL dview5 1248 240 R0
SYMATTR InstName U5
SYMBOL 74hct86 -288 -16 R0
SYMATTR InstName U6
TEXT -488 -80 Left 2 !.tran 0 16m 0
TEXT -336 -80 Left 2 !.lib 74HCT.lib
TEXT -192 -80 Left 2 !.lib dview.lib
