Version 4
SHEET 1 1476 800
WIRE -16 -32 -16 -48
WIRE 16 -32 16 -48
WIRE 48 -32 48 -48
WIRE 80 -32 80 -48
WIRE 112 -32 112 -48
WIRE 144 -32 144 -48
WIRE 176 -32 176 -48
WIRE 208 -32 208 -48
WIRE 304 -32 304 -48
WIRE 336 -32 336 -48
WIRE 400 -32 400 -48
WIRE 432 -32 432 -48
WIRE 624 96 576 96
WIRE 768 112 736 112
WIRE 784 112 768 112
WIRE 624 128 608 128
WIRE 912 160 880 160
WIRE 1024 160 992 160
WIRE 1056 160 1024 160
WIRE -400 176 -432 176
WIRE -272 176 -304 176
WIRE -144 176 -192 176
WIRE 48 192 -16 192
WIRE 768 192 768 112
WIRE 768 192 592 192
WIRE 912 192 880 192
WIRE 1024 192 992 192
WIRE 1056 192 1024 192
WIRE -432 208 -432 176
WIRE -304 208 -304 176
WIRE -192 208 -192 176
WIRE 608 208 608 128
WIRE 752 208 608 208
WIRE -432 224 -432 208
WIRE 912 224 880 224
WIRE 1024 224 992 224
WIRE 1056 224 1024 224
WIRE 912 256 880 256
WIRE 1024 256 992 256
WIRE 1056 256 1024 256
WIRE 592 272 592 192
WIRE 624 272 592 272
WIRE -400 288 -432 288
WIRE 752 288 752 208
WIRE 752 288 736 288
WIRE 784 288 752 288
WIRE -432 304 -432 288
WIRE -304 304 -304 288
WIRE -192 304 -192 288
WIRE -16 304 -16 288
WIRE 16 304 16 288
WIRE 48 304 48 288
WIRE 80 304 80 288
WIRE 112 304 112 288
WIRE 144 304 144 288
WIRE 176 304 176 288
WIRE 208 304 208 288
WIRE 304 304 304 288
WIRE 336 304 336 288
WIRE 400 304 400 288
WIRE 432 304 432 288
WIRE 624 304 576 304
WIRE 64 528 -16 528
FLAG -432 304 0
FLAG -400 176 1
IOPIN -400 176 Out
FLAG -400 288 0
IOPIN -400 288 Out
FLAG 48 -48 0
IOPIN 48 -48 In
FLAG 16 -48 0
IOPIN 16 -48 In
FLAG 80 -48 0
IOPIN 80 -48 In
FLAG 112 -48 1
IOPIN 112 -48 In
FLAG 144 -48 1
IOPIN 144 -48 In
FLAG 176 -48 1
IOPIN 176 -48 In
FLAG 208 -48 1
IOPIN 208 -48 In
FLAG -16 -48 1
IOPIN -16 -48 In
FLAG 432 -48 1
IOPIN 432 -48 In
FLAG -272 176 CK
IOPIN -272 176 Out
FLAG -304 304 0
FLAG -144 176 LD
IOPIN -144 176 Out
FLAG -192 304 0
FLAG 400 -48 LD
IOPIN 400 -48 In
FLAG 304 -48 CK
IOPIN 304 -48 In
FLAG 336 -48 0
IOPIN 336 -48 In
FLAG 48 288 1
IOPIN 48 288 In
FLAG 16 288 0
IOPIN 16 288 In
FLAG 80 288 1
IOPIN 80 288 In
FLAG 112 288 0
IOPIN 112 288 In
FLAG 144 288 1
IOPIN 144 288 In
FLAG 176 288 1
IOPIN 176 288 In
FLAG 208 288 1
IOPIN 208 288 In
FLAG -16 288 0
IOPIN -16 288 In
FLAG 432 288 1
IOPIN 432 288 In
FLAG 400 288 LD
IOPIN 400 288 In
FLAG 304 288 CK
IOPIN 304 288 In
FLAG 336 288 0
IOPIN 336 288 In
FLAG 64 528 b
IOPIN 64 528 Out
FLAG 48 192 a
IOPIN 48 192 Out
FLAG 880 160 a
IOPIN 880 160 In
FLAG 880 192 b
IOPIN 880 192 In
FLAG 880 224 P
IOPIN 880 224 In
FLAG 880 256 Q
IOPIN 880 256 In
FLAG 1024 160 Ain
FLAG 1024 192 Bin
FLAG 1024 224 Pout
FLAG 1024 256 Qout
FLAG 576 96 a
IOPIN 576 96 In
FLAG 576 304 b
IOPIN 576 304 In
FLAG 784 288 Q
IOPIN 784 288 Out
FLAG 784 112 P
IOPIN 784 112 Out
SYMBOL voltage -432 192 R0
WINDOW 123 0 0 Left 2
WINDOW 39 0 0 Left 2
WINDOW 3 43 53 Left 2
SYMATTR Value 5
SYMATTR InstName V2
SYMBOL voltage -304 192 R0
WINDOW 123 0 0 Left 2
WINDOW 39 0 0 Left 2
WINDOW 3 -139 -97 Left 2
SYMATTR Value PULSE(0 5 1m 1n 1n 0.5m 1m 18)
SYMATTR InstName V1
SYMBOL 74hct166 496 80 R90
SYMATTR InstName U3
SYMBOL voltage -192 192 R0
WINDOW 123 0 0 Left 2
WINDOW 39 0 0 Left 2
WINDOW 3 -249 -64 Left 2
WINDOW 0 18 14 Left 2
SYMATTR Value PULSE(0 5 1.5m 1n 1n)
SYMATTR InstName V3
SYMBOL 74hct166 496 416 R90
SYMATTR InstName U1
SYMBOL dview5 928 304 R0
SYMATTR InstName U2
SYMBOL 74hct02 672 48 R0
SYMATTR InstName U4
SYMBOL 74hct02 672 224 R0
SYMATTR InstName U5
TEXT -448 368 Left 2 !.tran 0 9m 1.1m
TEXT -368 -8 Left 2 !.lib 74HCT.lib
TEXT -368 24 Left 2 !.lib dview.lib
TEXT -24 -112 Left 2 ;time --->
TEXT -32 224 Left 2 ;time --->
